662
h102 o335 si142
 H   -0.969748   11.806764    7.893300
 H    0.356889    8.310626    3.703378
 H    0.360731    0.953597    2.606191
 H    8.000566   12.761139    7.813466
 H    4.889840    1.184278    2.932654
 H    6.513723    7.655036    2.943249
 H    1.212733   11.900151    3.550965
 H    2.722607   16.112822    3.228822
 H    4.967828    4.628152    9.630499
 H    9.356688   13.991035    6.248098
 H    6.571728    5.917361   10.624872
 H   -0.348370    7.914064    6.306992
 H    1.562826   17.349173    4.466951
 H    7.696557   10.253064    6.754944
 H  -19.719177   35.143452    8.825842
 H   -0.949708   11.557508    2.540518
 H   -5.167360   21.837364    8.667136
 H   -4.795673   20.289675    6.328465
 H  -15.297684   27.717735   10.319247
 H   -0.513030   27.378483   11.029525
 H   -5.565416   21.912006    5.144969
 H   -2.155398   28.715542    3.533113
 H  -15.141507   33.733524    5.515291
 H  -11.924312   26.293720    4.957572
 H    1.291220   28.325895    7.840713
 H   -1.511850   19.606146    7.473352
 H    3.633358   26.489031    3.689876
 H  -12.200398   22.817621    1.443108
 H   -9.066519   31.954624    4.369048
 H    0.491739   18.562290    2.798121
 H   -9.542971   21.924068   10.406731
 H  -10.926138   23.177845    9.276186
 H  -13.619071   24.829268    2.450796
 H   -5.436036   28.745396   10.866493
 H   -7.270818   23.169207    4.187133
 H  -12.936912   26.650709    7.176352
 H   -5.209875   27.757198    0.542709
 H   -1.937321   21.004564   11.290328
 H    5.449030   25.851669   11.970932
 H   -1.810045   21.469189    8.183468
 H   -9.585130   23.624329    4.352512
 H   12.346481   19.341219    0.516745
 H   10.847527   19.518064    6.058602
 H   13.731845   33.308479    2.366681
 H    9.231144   29.214708    7.607140
 H   13.536086   34.627728    7.707190
 H    7.990776   26.951908    4.575371
 H   22.169767   25.572819    8.429507
 H   15.826818   23.743362    3.238358
 H    5.401398   27.253471    1.868156
 H   11.898161   19.395260    9.871373
 H   13.637089   31.145607    5.491784
 H    6.992221   26.671530    6.861172
 H   13.243934   32.039349   10.440540
 H   14.488472   22.638964   10.733812
 H   16.365313   22.660789    9.688830
 H   15.923306   33.162846   10.302007
 H   12.421361   20.343288    2.528598
 H   19.723074   24.855827    0.874596
 H    9.196382   15.307145   11.268334
 H   23.497131   27.776682    9.237877
 H   38.327099    0.838948    0.008033
 H   20.114239   34.049282   11.888178
 H   39.288929    0.772097    3.897264
 H    4.877637    5.475886   11.828482
 H    1.631379   27.410135   12.147332
 H   -6.131230   22.654413   12.034536
 H  -11.612306   34.584332    0.870935
 H   14.014922   24.856169   10.994092
 H   20.279972   35.140297    6.099064
 H   37.912609    4.301042    1.336554
 H   23.965546   27.194849   12.117663
 H   -1.537912    6.399401    5.525289
 H   -1.293368   13.601857   10.777775
 H    8.997869   12.601829   11.552695
 H   -0.876886    5.502457    9.821357
 H    9.069104    7.085755    8.273076
 H   -1.397475    8.216727    0.329940
 H   -5.101242   24.511841    3.498659
 H   -5.424310   31.645966    8.458385
 H   -0.343777   18.846331    9.353848
 H  -12.923267   25.137877   10.382750
 H    8.604297   30.683613    3.634077
 H   17.064371   23.164015   11.799883
 H  -13.664985   34.682083   11.840402
 H    7.292553    0.021163    6.769440
 H    7.600290   10.616447    0.799215
 H  -10.277765   20.951859    1.688164
 H   -0.281735   19.386686    0.460929
 H   -8.474337   32.191471    1.520612
 H   21.575876   26.490898    0.230649
 H   -1.202057   11.303709   10.396227
 H   -0.239642    1.255524   10.827867
 H   11.666867   30.362684   11.149406
 H    9.201809   28.978827   10.184836
 H   37.689827    3.816418    3.840997
 H   25.097008   26.338425    3.507597
 H    4.830439    0.304846    0.405168
 H    4.431878    8.074512    3.593456
 H   -6.778990   27.750225    2.299804
 H   -5.234374   29.679844    6.868906
 H   17.654570   25.134985    6.145493
 O    1.687303   15.056813   11.758674
 O    3.125809   14.637193    8.265041
 O    3.839198   11.897961   12.036214
 O    2.080373    8.716797   11.354960
 O    0.675506   12.512742    0.111161
 O    3.567991    8.506833    6.639349
 O    6.137722   17.096088    2.252912
 O    2.942158   17.344759   12.159659
 O    2.676850    3.809135    8.095149
 O    1.748830    1.099244    0.316256
 O    6.947995   15.402222    6.052835
 O    2.644014    4.652514    5.549690
 O    0.068514    9.875950    0.451498
 O    5.081511   13.754374    2.922139
 O    4.831178   11.185810    2.257595
 O    1.445175    7.845252    1.612676
 O   -0.195337    5.674991   11.795301
 O  -19.680178   34.906677    6.797579
 O    3.921947   15.032022    0.916292
 O    0.815828   10.332927    6.475856
 O   -0.306360   11.536360    8.539989
 O    4.265727    0.544830    1.180766
 O    0.381075    8.670507    4.601699
 O    0.727445    3.500554    0.773706
 O    4.005335   17.189959    8.322798
 O    5.646389    5.935781    0.013216
 O    8.669608   16.925892    1.382866
 O    5.713913    7.918004    8.105858
 O    4.953233    8.516334    4.284840
 O    0.609854    7.676690    9.334062
 O   -0.301708    1.434281    2.078225
 O    7.882220   15.532387    3.523496
 O    2.349410    5.584812    0.463076
 O    1.756852   10.031725    9.055669
 O    7.941348   13.726612    7.919583
 O    3.294181    7.853602    9.212747
 O    7.004062   14.957774    1.008287
 O    4.566111    1.460463    3.808847
 O    0.264781    4.511269    4.312083
 O    6.650743    7.158531    2.123860
 O    2.766370   10.017371    4.641930
 O    2.426315    1.085607    5.353056
 O    2.253018    0.461027    2.811642
 O   -0.721235    5.848700    2.222688
 O    1.646638    4.171081   10.532224
 O    3.984218    5.998295    7.419903
 O    1.325953    6.024756    7.387748
 O    4.303277   12.575658    9.500787
 O    0.561880   11.274776    3.910656
 O    3.076048    1.968700    9.958578
 O    2.297492    5.745418    3.151831
 O    2.269094   12.183983    7.673705
 O    2.787453   15.155182    3.376037
 O    9.030209   16.931334    5.541312
 O    5.548281    8.626981    0.142107
 O    2.514158   10.213323    1.404770
 O    2.782550   12.831511    2.090488
 O    2.966997    0.373371    7.828698
 O    7.234652    8.486591   10.248488
 O    1.762863   13.104255   10.028244
 O    5.665792   10.602398   10.585483
 O    4.254868    4.380403   10.242617
 O    5.713994   15.148757    8.387218
 O    9.275631   14.255949    5.319764
 O    6.711578    5.933024    9.654622
 O    4.086791   15.608790   10.507441
 O    2.362166    3.032089    3.515513
 O   -0.840519    7.425567    6.992199
 O    5.731530   13.092452    6.567795
 O    2.044363   17.872133    3.807528
 O    5.019633   10.586804    5.974001
 O    4.001850    7.215127    1.776011
 O   -2.602811    4.884048    0.563844
 O    7.550038   11.200317    6.635847
 O    1.025787    0.233583    9.659359
 O   -1.393975   11.748851    1.697700
 O    6.121029   13.106882   11.447887
 O    6.524766   11.921477    4.250028
 O    7.073017   12.404557    1.675585
 O  -14.822802   29.179113    7.176277
 O    0.963930   21.173271    7.196812
 O  -11.978134   32.377090    4.833092
 O  -11.935530   26.061615    0.748334
 O    5.519659   24.656631    5.589595
 O   -7.273785   26.085981   11.471168
 O    2.486344   22.498634    2.707869
 O   -9.045801   30.098631   11.787863
 O   -5.811288   26.883013    7.006402
 O    7.555967   18.724743    6.856985
 O  -15.992582   28.878069    2.152507
 O    2.989846   20.355995    4.216021
 O   -5.605020   21.625095    7.831890
 O    4.140897   24.930775    7.902173
 O   -1.075113   23.477997    1.057356
 O   -4.298471   20.353100    5.494341
 O   -0.398346   23.519855   10.678309
 O    4.434011   18.998798    1.433496
 O    1.905677   23.525042    7.846912
 O  -15.445518   27.943005    9.377941
 O    0.368864   27.245409   10.651587
 O   -6.372542   22.377605    5.437743
 O  -12.077502   31.879080   11.761862
 O   -9.244952   27.470673    0.186529
 O   -1.445981   23.397715    3.660633
 O   -8.212331   25.537737    1.743528
 O  -10.263370   24.013687    0.059323
 O   -1.392994   28.407639    3.029137
 O   -8.678576   28.274984    6.573464
 O  -10.408690   28.470339    8.587000
 O    1.969860   27.220396    0.842635
 O   -9.671846   32.536640   10.852472
 O    6.916154   19.232937    9.376753
 O  -15.671548   27.391405   12.085348
 O    7.182732   17.870726   11.614240
 O    4.712514   18.393896    3.977604
 O  -11.196756   30.817932    9.493113
 O   -2.328643   25.014540    5.525484
 O    5.193611   22.566847   11.310381
 O  -14.190392   33.695992    5.333450
 O   -8.901385   26.030560    5.186577
 O    7.196427   21.256388    7.651435
 O  -12.980214   28.907360    9.152696
 O   -5.211839   22.934292   11.911346
 O  -11.554027   26.096346    5.833154
 O    6.657320   19.724072    2.660901
 O    3.621284   23.834753    0.696202
 O   -3.568746   25.939089    8.076057
 O   -4.126194   27.095999    4.955255
 O    0.442649   27.893459    7.987160
 O   -8.283530   24.573935    9.557035
 O    3.146869   18.375216    6.107576
 O  -12.972958   32.342312    7.300518
 O   -1.708630   21.182138    2.267649
 O  -15.370015   32.322701   10.967977
 O   -7.974392   22.988705    0.962399
 O   -2.345171   20.076891    7.262243
 O   -8.201423   27.112001    9.028858
 O    4.584683   26.582844    3.856785
 O   -5.888536   25.761003    9.369132
 O    1.837743   25.863800    8.987020
 O  -16.532604   31.139639    6.478106
 O    3.190860   23.880787   10.188117
 O    0.491358   21.128313    3.857283
 O   -3.535295   23.082314    1.879629
 O   -6.818494   27.648125    4.691239
 O    8.552615   19.222084    4.429123
 O    4.812130   18.892868   10.998331
 O   -2.537676   22.292864    5.777693
 O  -12.702857   23.579170    1.100755
 O  -16.759422   34.505806   10.190513
 O    5.114479   19.533009    7.475997
 O  -16.040951   29.122921    4.787916
 O  -11.339366   29.967960    3.946148
 O  -13.574347   28.066435    1.376923
 O   -9.602091   32.026272    3.570508
 O  -11.216183   28.732292   11.169839
 O   -0.330839   18.982504    2.484650
 O  -14.173239   30.955772    5.324515
 O   -9.248328   21.633173   11.296745
 O    1.002483   24.813280    0.303684
 O    1.055172   22.095861    0.170359
 O    1.236243   21.002377    9.947206
 O  -10.111080   22.750677    8.958415
 O   -5.510216   24.239008    7.240880
 O  -13.708091   25.749649    2.763732
 O   -7.915847   23.019123    7.436670
 O    6.816173   20.519857   11.719616
 O   -6.281020   28.883295   10.398710
 O   -9.255867   28.330412    3.897652
 O   -1.992539   27.035635    0.742350
 O    2.341979   25.200020    2.565766
 O  -14.834935   29.925257   12.173172
 O   -7.887259   23.646103    3.579503
 O   -8.040960   29.735640    8.663391
 O  -14.481443   33.758118    8.944412
 O    2.141569   22.607838    5.345406
 O  -13.715748   26.750263    7.751812
 O  -12.493859   34.192268    0.853816
 O   -3.941261   25.218124    0.315351
 O   -6.775813   27.714857    1.329178
 O  -11.882962   33.378773    9.550862
 O   -2.761098   26.618454   10.523089
 O   -7.215600   31.478119   10.492249
 O   -2.676213   26.047152    3.067234
 O   -4.430477   27.854914   12.153911
 O    4.612912   23.976580    3.199496
 O  -11.668114   27.399702    3.106168
 O   -2.776345   24.061045    9.714278
 O  -14.196184   32.225670    1.146858
 O   -0.063360   26.232138    2.360452
 O   -9.856778   24.883871    7.381245
 O  -17.919720   33.775856    0.812588
 O   -0.193673   23.471075    6.110045
 O   -5.163077   29.312490    5.970272
 O   -5.855332   24.272884    1.927158
 O    2.629216   19.448088    8.437853
 O  -11.737165   31.977991    2.186569
 O  -16.756683   31.458677    0.878287
 O   -1.756138   19.958189    4.626223
 O  -10.492788   29.232130    1.603474
 O   -2.462183   21.775120   11.019023
 O    5.174940   25.286888   11.228236
 O    2.564112   19.952229   12.057318
 O  -17.381493   33.645939    6.001924
 O   -0.948284   25.838943    8.760859
 O   -1.244111   22.140457    8.616223
 O  -10.368770   23.849686    4.891060
 O   14.193162   31.766159    7.725810
 O   20.279884   30.195833    3.774105
 O    8.202165   25.406572    0.980585
 O   14.357391   29.840277   11.995104
 O   12.511270   26.095587   11.131932
 O   14.462623   26.160889    6.528591
 O   37.731750    0.162381    0.380410
 O   12.819111   21.456556    8.149804
 O   11.716277   19.432901    1.250514
 O   17.699287   33.017540    5.072415
 O   20.315470   31.217354    9.289435
 O   20.290483   29.499302    7.195171
 O   20.170208   26.828796   10.002608
 O   12.911831   21.963324    5.552153
 O   10.618373   27.310593    0.335848
 O   15.406403   31.238327    2.982996
 O   15.384076   28.803034    1.968128
 O   12.118846   25.381060    1.473073
 O   20.306484   27.893024    5.040108
 O    9.988703   23.819748   11.922439
 O   21.185925   29.212368   10.836432
 O   19.909180   27.982069    2.370649
 O   10.148843   19.144209    6.607836
 O   13.226013   32.776600    2.991461
 O   11.274183   28.092890    6.275571
 O    9.910669   29.178728    8.292012
 O   21.572702   31.826025    7.053115
 O   17.900059   25.624737    5.352647
 O   10.843607   25.958454    4.779366
 O   10.260508   21.243916   12.119045
 O   14.459714   34.439281    7.509895
 O   14.658759   24.177221   11.256706
 O   19.800850   33.950260    0.594929
 O    8.287473   26.655865    5.448669
 O   16.129679   25.071171    8.285391
 O   15.590769   26.331209    4.095594
 O   19.701527   26.933626    7.403223
 O   10.905580   24.942299    9.308495
 O    9.247716   20.015305    2.033493
 O   19.247757   30.795061   11.704585
 O   18.006611   33.749844    2.513030
 O   12.255823   22.820768    0.809169
 O   11.768495   27.440138    8.897655
 O   18.925447   31.791838    7.103111
 O   13.540922   25.461727    8.903361
 O   17.460573   32.727001    0.094486
 O   21.371269   25.024078    8.371309
 O   10.595174   21.977791    4.207935
 O   16.760052   23.421650    0.492482
 O   13.163376   27.338205    4.545629
 O    9.451260   23.447109    2.264366
 O    6.120180   26.969355    1.278224
 O   21.692392   31.765310   11.506025
 O   11.870800   22.479658   10.417531
 O    9.176390   23.023861    8.221660
 O   14.226054   23.562777    7.210053
 O    6.848782   25.399548    3.334486
 O   11.548333   23.569576    7.137499
 O   14.776202   29.723873    9.386381
 O    7.478452   22.466848   10.019297
 O   10.821274   28.300083    3.604025
 O   18.116314   27.371401    0.460274
 O  -18.204178   31.659386    4.469719
 O   12.606571   19.870283   10.326013
 O   12.552750   23.518097    3.387785
 O   21.470655   31.676601    1.961354
 O   12.523499   29.746777    7.902437
 O   13.304708   30.714039    4.692643
 O    6.237224   26.459827    7.439814
 O   39.404099    0.038907    4.521853
 O   15.838676   26.005793    0.577484
 O   13.206615   27.693859    0.980827
 O   13.118798   30.178114    2.135493
 O    9.685200   18.704220   11.885328
 O   17.318472   25.761839   10.631945
 O   22.322857   28.511316    3.418088
 O   12.698012   31.410019    9.942325
 O   17.944483   26.177694    2.831660
 O   16.068123   28.019823   11.001248
 O   14.462879   21.774368   10.256891
 O   16.622549   32.990620    7.526460
 O   20.099714   32.840679    3.943834
 O    8.414557   27.395941    2.768932
 O   17.149887   23.181561    9.929338
 O   15.110271   33.068161    9.787668
 O   12.866390   20.801979    3.269852
 O   20.076622   25.691851    1.204970
 O    9.619225   25.348734    7.087457
 O   16.614649   30.800863    6.072334
 O    6.579687   23.807669    7.861218
 O   15.365645   28.496059    5.637697
 O   14.469058   24.057451    1.725792
 O    7.538579   22.894701    0.441708
 O   17.985546   28.557074    6.242088
 O    9.279753   16.240513   11.015133
 O    9.608638   29.430641    1.456235
 O   22.546053   27.521456    9.217830
 O   16.707510   30.595001   11.008415
 O   17.177778   29.410158    3.859088
 O    8.039685   21.742704    3.714953
 O   18.773050   24.867483    8.689281
 O   17.464148   30.418320    1.424242
 O    8.989305   24.035954    4.834404
 O   -2.156682    3.884937    3.244913
 O   -1.880995    6.112745    4.660394
 O   -0.598257   14.276769   10.729662
 O   -0.936499    5.567054    8.855380
 O    8.236678    7.471796    7.978957
 O   -1.995903    7.462651    0.414860
 O  -10.402250   21.895090    1.531154
 O   -0.132199   19.744652   11.765575
 O   -7.948748   32.298019    0.713274
 O   -4.559487   24.533211    4.305555
 O   -5.540334   30.693439    8.554715
 O   -0.055393   19.142286    8.477342
 O  -12.270239   24.521549   10.733950
 O    8.593982   29.758009    3.901714
 O   16.673845   23.934900    3.666150
 O  -14.516171   34.886150   11.397581
 O  -12.511217   34.999805    7.579699
 O    7.803561   10.166123   12.165797
 O   22.180946   26.966726   11.827765
 O    8.736066   13.423560   11.988751
 O   -1.575080   11.523774   11.268711
 O   -0.681184    1.658584   11.601638
 O   11.546086   29.598507   11.737169
 O    8.960272   28.984724   11.127610
 O   24.206507   26.689054    3.674045
Si    4.249190   15.681501    8.869482
Si    4.150012    7.569455    7.846900
Si    1.534415    9.170948    0.620816
Si    1.152720   10.089924    4.894489
Si    2.944504    1.533144    3.875996
Si  -18.080425   35.073971    6.457243
Si    3.476302   11.511784    1.374532
Si    1.127706    4.721245   11.975303
Si    1.882322    4.473931    4.116879
Si    2.495105    6.563573    1.761613
Si    2.633719    5.113450    7.106493
Si   -1.112159    5.112892    3.643945
Si    0.862494   13.745309   11.222735
Si    8.292945   15.543324    5.108773
Si    3.624013   14.249886    2.325349
Si    7.217429   13.471628    0.408986
Si    4.095617    9.396850    5.370947
Si    6.571120   14.350902    7.245914
Si    0.033742    6.664014    8.162312
Si    1.917806    8.559349    9.732814
Si    2.886801   13.131581    8.864734
Si    7.429293   16.118952    2.083943
Si    4.992434   12.055554   10.887610
Si    2.930334    3.572607    9.697301
Si    1.137933   11.016593    7.920761
Si    6.978227    7.426491    9.026346
Si    5.885269   12.328219    2.818399
Si    2.651701    0.483883    9.424227
Si    6.560756    9.464615   11.358958
Si    5.468515    7.232395    1.007380
Si    3.164766   15.756218   11.857215
Si    6.192508   11.700448    5.845319
Si    2.693426    0.137549    1.246921
Si   -0.551167   11.427637    0.350232
Si    0.363360    1.908215    0.649994
Si   -1.409004    5.978784    0.717145
Si    8.126238   20.182434    3.206361
Si   -5.169610   25.685516    7.913104
Si   -0.816864   20.310276    3.324452
Si   -1.607056   23.549967    5.290807
Si   -7.891783   26.704361    0.634407
Si   -8.420668   27.579180    5.111846
Si  -18.213274   32.179943    0.728033
Si  -11.188219   31.579496    3.661254
Si    5.381346   25.148138    4.047732
Si  -15.055099   28.559372    0.865239
Si   -9.467600   22.612114    0.361754
Si   -7.487329   24.101974    2.070546
Si    1.207688   20.691641   11.548243
Si   -6.341014   22.855213    7.017499
Si    3.697862   18.798071   12.194363
Si    5.622821   24.973499    7.210449
Si   -8.477766   31.615154   11.534209
Si  -11.457296   29.210649    9.604142
Si   23.931887   28.285044    3.529464
Si    2.793596   24.561388    8.745028
Si  -12.729767   26.811068    1.973498
Si    3.761526   18.634241    7.606529
Si  -10.175291   25.184233    5.796158
Si    8.711546   17.394432   12.002418
Si   -5.457867   27.747499    5.663480
Si  -10.666142   28.709629    3.144573
Si   -9.033176   23.827505    8.310953
Si    1.160992   22.723352    6.662167
Si   -3.422972   25.681190    4.476794
Si  -14.207592   28.192930    8.326346
Si    1.285538   25.898933    1.499168
Si   -7.432979   25.942881    9.854518
Si    6.436931   19.142653   10.921964
Si    6.709167   19.706034    7.833747
Si    0.428682   26.685942    9.092542
Si   -6.751462   30.192682    9.568913
Si  -12.611626   32.538250    0.956350
Si    2.026132   21.660633    4.023273
Si  -15.270251   33.847256   10.363390
Si    0.162680   23.463024    0.002812
Si    4.291965   23.936995   11.412379
Si    5.522084   18.565786    2.564154
Si  -15.405820   30.062824    5.944313
Si  -11.202011   32.162422   10.398832
Si  -17.807278   32.044792    6.006835
Si   -1.728817   22.831629   10.001163
Si   -8.817782   28.374344    8.207279
Si    1.198478   20.233728    8.510387
Si   -2.485501   25.607883    9.262448
Si   -1.527598   26.943821    2.318399
Si   -3.322031   26.652033   12.056696
Si   -2.701835   20.663500    5.768970
Si   -4.600124   23.857250    0.905589
Si  -15.297786   31.481018    0.173941
Si   -1.964383   22.804274    2.225274
Si  -12.961075   33.623577    8.332480
Si  -10.018316   28.896397    0.076380
Si    8.836587   18.518770    5.863861
Si    3.277092   23.864857    2.273590
Si    6.755437   22.131996   11.426527
Si  -11.807752   24.552681    0.109544
Si  -13.365269   32.322620    5.705647
Si    3.248408   18.795481    4.544909
Si   15.113463   33.080421    8.136097
Si   14.595431   25.071672    7.719815
Si   12.094887   26.645069    0.436515
Si   11.552174   27.446762    4.795615
Si   13.944810   29.112436    1.208365
Si    7.583933   22.661312    8.413581
Si   11.106325   22.612375   11.857607
Si   12.234080   22.047556    4.069228
Si   12.830069   23.956959    1.847012
Si   12.881413   22.639585    7.021114
Si    9.269251   22.830544    3.767200
Si   18.708149   33.687527    3.981648
Si   13.760981   31.246778    3.221283
Si    7.400377   26.307163    2.074505
Si   17.732117   31.116415   12.171741
Si    9.437828   25.477669    5.476089
Si   19.566095   28.218065    6.456992
Si   14.652826   27.081892    5.189872
Si   17.485312   32.135201    6.431506
Si    9.391809   28.726517    2.910796
Si   10.298774   24.177366    7.986718
Si   17.012514   25.495237    3.987632
Si   12.135093   25.997297    9.535715
Si   20.032225   25.917593    8.621583
Si   13.565441   30.643011    8.756944
Si   18.180075   33.978672    0.894857
Si   20.714247   28.615894    3.641789
Si   15.477340   29.529819   10.851848
Si   12.950902   21.386990    9.783702
Si   20.611473   30.726431   10.821417
Si   11.376895   28.592651    7.814485
Si   20.266560   31.056198    7.663746
Si   17.307135   24.726679    9.377448
Si   16.373062   29.977032    2.555698
Si   18.973362   26.799061    1.756279
Si   16.852579   26.821138   11.776425
Si   15.474855   24.411160    0.480165
Si   21.061632   31.601723    3.525571
Si   16.781851   29.297100    5.451445
Si   21.516333   27.650158   10.473970
Si   10.166512   28.875872    0.007994
Si   10.197245   19.841530    0.734839
Si    8.778140   23.885723    0.838100
 H  -20.323067   35.140297    6.099064
 H    4.877637    5.475886   -0.372432
 H   -2.690430    4.301042    1.336554
 H    0.582342   -0.019810    8.825842
 H    1.631379   27.410135   -0.053581
 H  -16.637493   27.194849   12.117663
 H   -5.209875   27.757198   12.743623
 H   20.114239   34.049282   -0.312736
 H   17.064371   23.164015   -0.401031
 H   -2.913212    3.816418    3.840997
 H   -0.281735   19.386686   12.661842
 H  -13.008966   35.184425    6.769440
 H    7.600290   10.616447   13.000129
 H   21.575876   26.490898   12.431562
 O    2.080373    8.716797   -0.845953
 O  -17.875204   36.248867    5.353056
 O  -17.334522   35.536633    7.828698
 O    3.839198   11.897961   -0.164700
 O    0.727445    3.500554   12.974619
 O    2.349410    5.584812   12.663989
 O    0.675506   12.512742   12.312075
 O    6.121029   13.106882   -0.753026
 O    8.736066   13.423560   -0.212162
 O    3.542097   -0.657455   10.190513
 O    5.548281    8.626981   12.343020
 O    3.921947   15.032022   13.117206
 O    2.381800   -1.387405    0.812588
 O   -1.575080   11.523774   -0.932202
 O   -0.681184    1.658584   -0.599276
 O   -0.195337    5.674991   -0.405612
 O   -7.273785   26.085981   -0.729746
 O  -18.910646   31.765310   -0.694888
 O  -19.132383   31.676601    1.961354
 O  -15.671548   27.391405   -0.115565
 O  -14.834935   29.925257   -0.027741
 O   -9.248328   21.633173   -0.904168
 O    1.055172   22.095861   12.371273
 O    4.434011   18.998798   13.634409
 O   -7.948748   32.298019   12.914186
 O   24.610456   28.878069    2.152507
 O   24.562088   29.122921    4.787916
 O    8.669608   16.925892   13.583779
 O  -12.077502   31.879080   -0.439052
 O   -0.398346   23.519855   -1.522604
 O    3.621284   23.834753   12.897115
 O  -19.030336   31.826025    7.053115
 O   -3.941261   25.218124   12.516265
 O   -1.992539   27.035635   12.943263
 O   -5.211839   22.934292   -0.289567
 O  -15.370015   32.322701   -1.232937
 O  -11.216183   28.732292   -1.031075
 O   -9.045801   30.098631   -0.413051
 O    7.538579   22.894701   12.642621
 O  -12.270239   24.521549   -1.466964
 O   12.511270   26.095587   -1.068981
 O   14.357391   29.840277   -0.205810
 O   12.255823   22.820768   13.010083
 O   19.102579   35.202168    4.521853
 O   17.464148   30.418320   13.625155
 O   17.460573   32.727001   12.295400
 O   17.430231   35.325642    0.380410
 O   15.838676   26.005793   12.778398
 O   18.116314   27.371401   12.661187
 O   14.658759   24.177221   -0.944207
 O   22.398861   31.659386    4.469719
 O    8.960272   28.984724   -1.073303
 O   11.546086   29.598507   -0.463744
 O    9.685200   18.704220   -0.315585
 O   10.260508   21.243916   -0.081868
 O    9.988703   23.819748   -0.278475
 H    8.997869   12.601829   -0.648218
 H   -1.202057   11.303709   -1.804687
 H   -0.239642    1.255524   -1.373047
 H  -16.637493   27.194849   -0.083250
 H   -9.542971   21.924068   -1.794183
 H   -8.474337   32.191471   13.721525
 H   -6.131230   22.654413   -0.166377
 H  -12.923267   25.137877   -1.818164
 H   18.987410   35.935360    3.897264
 H   18.025579   36.002209    0.008033
 H   14.014922   24.856169   -1.206821
 H    9.201809   28.978827   -2.016077
 H   11.666867   30.362684   -1.051507
